/tmp/example2-oofem.out
surface fem - dem coupling test
nldeidynamic nsteps 2 dumpcoef 0.03 deltat 0.1 nmodules 1
vtkxml 1 tstep_step 0 domain_all vars 2 1 4 primvars 1 1 cellvars 1 102
domain 3d
OutputManager tstep_all dofman_all element_all
ndofman 128 nelem 270 ncrosssect 2 nmat 2 nbc 130 nic 0 nltf 2
node 1 coords 3 0.35 0.15 0.633154165755 load 1 2
node 2 coords 3 1.05 0.15 0.633154165755 load 1 3
node 3 coords 3 1.05 0.35 0.633154165755 load 1 4
node 4 coords 3 0.35 0.35 0.633154165755 load 1 5
node 5 coords 3 1.05 0.15 0.733154165755 load 1 6
node 6 coords 3 0.35 0.15 0.733154165755 load 1 7
node 7 coords 3 1.05 0.35 0.733154165755 load 1 8
node 8 coords 3 0.35 0.35 0.733154165755 load 1 9
node 9 coords 3 0.583333333333 0.15 0.633154165755 load 1 10
node 10 coords 3 0.816666666667 0.15 0.633154165755 load 1 11
node 11 coords 3 1.05 0.216666666667 0.633154165755 load 1 12
node 12 coords 3 1.05 0.283333333333 0.633154165755 load 1 13
node 13 coords 3 0.583333333333 0.35 0.633154165755 load 1 14
node 14 coords 3 0.816666666667 0.35 0.633154165755 load 1 15
node 15 coords 3 0.35 0.216666666667 0.633154165755 load 1 16
node 16 coords 3 0.35 0.283333333333 0.633154165755 load 1 17
node 17 coords 3 1.05 0.15 0.666487499088 load 1 18
node 18 coords 3 1.05 0.15 0.699820832422 load 1 19
node 19 coords 3 0.583333333333 0.15 0.733154165755 load 1 20
node 20 coords 3 0.816666666667 0.15 0.733154165755 load 1 21
# ... 48 like lines cut
node 69 coords 3 1.4 0.0 -1.0 load 1 70 bc 3 1 1 1
node 70 coords 3 0.0 0.0 -1.0 load 1 71 bc 3 1 1 1
node 71 coords 3 1.4 0.5 -1.0 load 1 72 bc 3 1 1 1
node 72 coords 3 0.0 0.5 -1.0 load 1 73 bc 3 1 1 1
node 73 coords 3 0.466666666667 0.0 0.0 load 1 74
node 74 coords 3 0.933333333333 0.0 0.0 load 1 75
node 75 coords 3 1.4 0.166666666667 0.0 load 1 76
node 76 coords 3 1.4 0.333333333333 0.0 load 1 77
node 77 coords 3 0.466666666667 0.5 0.0 load 1 78
node 78 coords 3 0.933333333333 0.5 0.0 load 1 79
node 79 coords 3 0.0 0.166666666667 0.0 load 1 80
node 80 coords 3 0.0 0.333333333333 0.0 load 1 81
node 81 coords 3 1.4 0.0 -0.333333333333 load 1 82
node 82 coords 3 1.4 0.0 -0.666666666667 load 1 83
node 83 coords 3 0.466666666667 0.0 -1.0 load 1 84 bc 3 1 1 1
node 84 coords 3 0.933333333333 0.0 -1.0 load 1 85 bc 3 1 1 1
node 85 coords 3 0.0 0.0 -0.333333333333 load 1 86
node 86 coords 3 0.0 0.0 -0.666666666667 load 1 87
node 87 coords 3 1.4 0.166666666667 -1.0 load 1 88 bc 3 1 1 1
node 88 coords 3 1.4 0.333333333333 -1.0 load 1 89 bc 3 1 1 1
node 89 coords 3 0.466666666667 0.5 -1.0 load 1 90 bc 3 1 1 1
node 90 coords 3 0.933333333333 0.5 -1.0 load 1 91 bc 3 1 1 1
node 91 coords 3 0.0 0.166666666667 -1.0 load 1 92 bc 3 1 1 1
node 92 coords 3 0.0 0.333333333333 -1.0 load 1 93 bc 3 1 1 1
node 93 coords 3 0.0 0.5 -0.333333333333 load 1 94
node 94 coords 3 0.0 0.5 -0.666666666667 load 1 95
node 95 coords 3 1.4 0.5 -0.333333333333 load 1 96
node 96 coords 3 1.4 0.5 -0.666666666667 load 1 97
node 97 coords 3 0.466666666667 0.166666666667 0.0 load 1 98
node 98 coords 3 0.466666666667 0.333333333333 0.0 load 1 99
node 99 coords 3 0.933333333333 0.166666666667 0.0 load 1 100
node 100 coords 3 0.933333333333 0.333333333333 0.0 load 1 101
node 101 coords 3 0.933333333333 0.0 -0.333333333333 load 1 102
node 102 coords 3 0.933333333333 0.0 -0.666666666667 load 1 103
node 103 coords 3 0.466666666667 0.0 -0.333333333333 load 1 104
node 104 coords 3 0.466666666667 0.0 -0.666666666667 load 1 105
node 105 coords 3 0.933333333333 0.166666666667 -1.0 load 1 106 bc 3 1 1 1
node 106 coords 3 0.933333333333 0.333333333333 -1.0 load 1 107 bc 3 1 1 1
node 107 coords 3 0.466666666667 0.166666666667 -1.0 load 1 108 bc 3 1 1 1
node 108 coords 3 0.466666666667 0.333333333333 -1.0 load 1 109 bc 3 1 1 1
node 109 coords 3 0.0 0.166666666667 -0.333333333333 load 1 110
node 110 coords 3 0.0 0.166666666667 -0.666666666667 load 1 111
node 111 coords 3 0.0 0.333333333333 -0.333333333333 load 1 112
node 112 coords 3 0.0 0.333333333333 -0.666666666667 load 1 113
node 113 coords 3 0.466666666667 0.5 -0.333333333333 load 1 114
node 114 coords 3 0.466666666667 0.5 -0.666666666667 load 1 115
node 115 coords 3 0.933333333333 0.5 -0.333333333333 load 1 116
node 116 coords 3 0.933333333333 0.5 -0.666666666667 load 1 117
node 117 coords 3 1.4 0.333333333333 -0.333333333333 load 1 118
node 118 coords 3 1.4 0.333333333333 -0.666666666667 load 1 119
node 119 coords 3 1.4 0.166666666667 -0.333333333333 load 1 120
node 120 coords 3 1.4 0.166666666667 -0.666666666667 load 1 121
node 121 coords 3 0.933333333333 0.166666666667 -0.333333333333 load 1 122
node 122 coords 3 0.933333333333 0.166666666667 -0.666666666667 load 1 123
node 123 coords 3 0.933333333333 0.333333333333 -0.333333333333 load 1 124
node 124 coords 3 0.933333333333 0.333333333333 -0.666666666667 load 1 125
node 125 coords 3 0.466666666667 0.166666666667 -0.333333333333 load 1 126
node 126 coords 3 0.466666666667 0.166666666667 -0.666666666667 load 1 127
node 127 coords 3 0.466666666667 0.333333333333 -0.333333333333 load 1 128
node 128 coords 3 0.466666666667 0.333333333333 -0.666666666667 load 1 129
ltrspace 1 nodes 4 59 61 63 64 mat 1 crosssect 1 bodyLoads 1 130
ltrspace 2 nodes 4 47 37 57 58 mat 1 crosssect 1 bodyLoads 1 130
ltrspace 3 nodes 4 22 58 48 27 mat 1 crosssect 1 bodyLoads 1 130
ltrspace 4 nodes 4 16 35 36 59 mat 1 crosssect 1 bodyLoads 1 130
ltrspace 5 nodes 4 37 61 57 58 mat 1 crosssect 1 bodyLoads 1 130
ltrspace 6 nodes 4 58 40 62 43 mat 1 crosssect 1 bodyLoads 1 130
ltrspace 7 nodes 4 35 34 36 59 mat 1 crosssect 1 bodyLoads 1 130
ltrspace 8 nodes 4 61 17 53 54 mat 1 crosssect 1 bodyLoads 1 130
ltrspace 9 nodes 4 40 54 62 43 mat 1 crosssect 1 bodyLoads 1 130
ltrspace 10 nodes 4 34 11 12 55 mat 1 crosssect 1 bodyLoads 1 130
ltrspace 11 nodes 4 13 34 14 49 mat 1 crosssect 1 bodyLoads 1 130
ltrspace 12 nodes 4 47 59 45 46 mat 1 crosssect 1 bodyLoads 1 130
ltrspace 13 nodes 4 46 58 60 42 mat 1 crosssect 1 bodyLoads 1 130
ltrspace 14 nodes 4 16 13 4 29 mat 1 crosssect 1 bodyLoads 1 130
ltrspace 15 nodes 4 59 49 51 52 mat 1 crosssect 1 bodyLoads 1 130
ltrspace 16 nodes 4 52 64 50 26 mat 1 crosssect 1 bodyLoads 1 130
ltrspace 17 nodes 4 10 11 33 61 mat 1 crosssect 1 bodyLoads 1 130
ltrspace 18 nodes 4 29 59 51 52 mat 1 crosssect 1 bodyLoads 1 130
ltrspace 19 nodes 4 46 52 30 8 mat 1 crosssect 1 bodyLoads 1 130
ltrspace 20 nodes 4 35 10 33 61 mat 1 crosssect 1 bodyLoads 1 130
# ... 115 like lines cut
ltrspace 136 nodes 4 123 125 127 128 mat 2 crosssect 2
ltrspace 137 nodes 4 119 101 121 122 mat 2 crosssect 2
ltrspace 138 nodes 4 82 122 120 87 mat 2 crosssect 2
ltrspace 139 nodes 4 76 99 100 123 mat 2 crosssect 2
ltrspace 140 nodes 4 101 125 121 122 mat 2 crosssect 2
ltrspace 141 nodes 4 122 104 126 107 mat 2 crosssect 2
ltrspace 142 nodes 4 99 98 100 123 mat 2 crosssect 2
ltrspace 143 nodes 4 125 85 109 110 mat 2 crosssect 2
ltrspace 144 nodes 4 104 110 126 107 mat 2 crosssect 2
ltrspace 145 nodes 4 98 79 80 111 mat 2 crosssect 2
ltrspace 146 nodes 4 78 98 77 113 mat 2 crosssect 2
ltrspace 147 nodes 4 125 111 127 128 mat 2 crosssect 2
ltrspace 148 nodes 4 128 110 112 92 mat 2 crosssect 2
ltrspace 149 nodes 4 98 68 77 113 mat 2 crosssect 2
ltrspace 150 nodes 4 113 111 93 94 mat 2 crosssect 2
ltrspace 151 nodes 4 128 94 114 89 mat 2 crosssect 2
ltrspace 152 nodes 4 123 113 115 116 mat 2 crosssect 2
ltrspace 153 nodes 4 116 128 114 89 mat 2 crosssect 2
ltrspace 154 nodes 4 73 79 97 125 mat 2 crosssect 2
ltrspace 155 nodes 4 95 123 115 116 mat 2 crosssect 2
# ... 115 like lines cut
SimpleCS 1 thick 1 width 1
SimpleCS 2 thick 1 width 1
IsoLE 1 tAlpha 0.000012 d 500e7 E 550e5 n 0.2
IsoLE 2 tAlpha 0.000012 d 550e7 E 500e5 n 0.2
BoundaryCondition 1 loadTimeFunction 1 prescribedValue 0
NodalLoad 2 loadTimeFunction 1 Components 3 0 0 0
NodalLoad 3 loadTimeFunction 1 Components 3 0 0 0
NodalLoad 4 loadTimeFunction 1 Components 3 0 0 0
NodalLoad 5 loadTimeFunction 1 Components 3 0 0 0
NodalLoad 6 loadTimeFunction 1 Components 3 0 0 0
NodalLoad 7 loadTimeFunction 1 Components 3 0 0 0
NodalLoad 8 loadTimeFunction 1 Components 3 0 0 0
NodalLoad 9 loadTimeFunction 1 Components 3 0 0 0
NodalLoad 10 loadTimeFunction 1 Components 3 0 0 0
NodalLoad 11 loadTimeFunction 1 Components 3 0 0 0
NodalLoad 12 loadTimeFunction 1 Components 3 0 0 0
NodalLoad 13 loadTimeFunction 1 Components 3 0 0 0
NodalLoad 14 loadTimeFunction 1 Components 3 0 0 0
NodalLoad 15 loadTimeFunction 1 Components 3 0 0 0
NodalLoad 16 loadTimeFunction 1 Components 3 0 0 0
NodalLoad 17 loadTimeFunction 1 Components 3 0 0 0
NodalLoad 18 loadTimeFunction 1 Components 3 0 0 0
NodalLoad 19 loadTimeFunction 1 Components 3 0 0 0
NodalLoad 20 loadTimeFunction 1 Components 3 0 0 0
NodalLoad 21 loadTimeFunction 1 Components 3 0 0 0
# ... 108 like lines cut
DeadWeight 130 loadTimeFunction 2 Components 3 0 0 -1e-5
ConstantFunction 1 f(t) 1.0
ConstantFunction 2 f(t) 1.0
