/tmp/example1-oofem.out
surface fem - dem coupling test
nldeidynamic nsteps 2 dumpcoef 0.03 deltat 0.1 nmodules 1
vtkxml 1 tstep_step 0 domain_all vars 2 1 4 primvars 1 1 cellvars 1 102
domain 3d
OutputManager tstep_all dofman_all element_all
ndofman 256 nelem 675 ncrosssect 1 nmat 1 nbc 201 nic 0 nltf 1
node 1 coords 3 0 0 0 bc 3 1 1 1
node 2 coords 3 1 0 0 bc 3 1 1 1 load 1 2
node 3 coords 3 1 1 0 bc 3 1 1 1 load 1 3
node 4 coords 3 0 1 0 bc 3 1 1 1 load 1 4
node 5 coords 3 1 0 5 load 1 5
node 6 coords 3 0 0 5 load 1 6
node 7 coords 3 1 1 5 load 1 7
node 8 coords 3 0 1 5 load 1 8
node 9 coords 3 0.333333 0 0 bc 3 1 1 1 load 1 9
node 10 coords 3 0.666667 0 0 bc 3 1 1 1 load 1 10
node 11 coords 3 1 0.333333 0 bc 3 1 1 1 load 1 11
node 12 coords 3 1 0.666667 0 bc 3 1 1 1 load 1 12
node 13 coords 3 0.333333 1 0 bc 3 1 1 1 load 1 13
node 14 coords 3 0.666667 1 0 bc 3 1 1 1 load 1 14
node 15 coords 3 0 0.333333 0 bc 3 1 1 1 load 1 15
node 16 coords 3 0 0.666667 0 bc 3 1 1 1 load 1 16
node 17 coords 3 1 0 0.333333 load 1 17
node 18 coords 3 1 0 0.666667 load 1 18
node 19 coords 3 1 0 1 load 1 19
node 20 coords 3 1 0 1.33333 load 1 20
node 21 coords 3 1 0 1.66667 load 1 21
node 22 coords 3 1 0 2 load 1 22
node 23 coords 3 1 0 2.33333 load 1 23
node 24 coords 3 1 0 2.66667 load 1 24
node 25 coords 3 1 0 3 load 1 25
node 26 coords 3 1 0 3.33333 load 1 26
node 27 coords 3 1 0 3.66667 load 1 27
node 28 coords 3 1 0 4 load 1 28
node 29 coords 3 1 0 4.33333 load 1 29
node 30 coords 3 1 0 4.66667 load 1 30
node 31 coords 3 0.333333 0 5 load 1 31
node 32 coords 3 0.666667 0 5 load 1 32
node 33 coords 3 0 0 0.333333 load 1 33
node 34 coords 3 0 0 0.666667 load 1 34
node 35 coords 3 0 0 1 load 1 35
node 36 coords 3 0 0 1.33333 load 1 36
# ... 44 like lines cut
node 81 coords 3 0.666667 0.333333 0 bc 3 1 1 1 load 1 81
node 82 coords 3 0.666667 0.666667 0 bc 3 1 1 1 load 1 82
node 83 coords 3 0.333333 0.333333 0 bc 3 1 1 1 load 1 83
node 84 coords 3 0.333333 0.666667 0 bc 3 1 1 1 load 1 84
node 85 coords 3 0.333333 0 0.333333 load 1 85
node 86 coords 3 0.333333 0 0.666667 load 1 86
node 87 coords 3 0.333333 0 1 load 1 87
node 88 coords 3 0.333333 0 1.33333 load 1 88
node 89 coords 3 0.333333 0 1.66667 load 1 89
node 90 coords 3 0.333333 0 2 load 1 90
node 91 coords 3 0.333333 0 2.33333 load 1 91
node 92 coords 3 0.333333 0 2.66667 load 1 92
node 93 coords 3 0.333333 0 3 load 1 93
node 94 coords 3 0.333333 0 3.33333 load 1 94
node 95 coords 3 0.333333 0 3.66667 load 1 95
node 96 coords 3 0.333333 0 4 load 1 96
node 97 coords 3 0.333333 0 4.33333 load 1 97
node 98 coords 3 0.333333 0 4.66667 load 1 98
node 99 coords 3 0.666667 0 0.333333 load 1 99
node 100 coords 3 0.666667 0 0.666667 load 1 100
node 101 coords 3 0.666667 0 1 load 1 101
node 102 coords 3 0.666667 0 1.33333 load 1 102
node 103 coords 3 0.666667 0 1.66667 load 1 103
node 104 coords 3 0.666667 0 2 load 1 104
# ... 97 like lines cut
node 202 coords 3 0.333333 0.333333 0.666667
node 203 coords 3 0.333333 0.333333 1
node 204 coords 3 0.333333 0.333333 1.33333
node 205 coords 3 0.333333 0.333333 1.66667
node 206 coords 3 0.333333 0.333333 2
node 207 coords 3 0.333333 0.333333 2.33333
node 208 coords 3 0.333333 0.333333 2.66667
node 209 coords 3 0.333333 0.333333 3
node 210 coords 3 0.333333 0.333333 3.33333
node 211 coords 3 0.333333 0.333333 3.66667
node 212 coords 3 0.333333 0.333333 4
node 213 coords 3 0.333333 0.333333 4.33333
node 214 coords 3 0.333333 0.333333 4.66667
node 215 coords 3 0.333333 0.666667 0.333333
node 216 coords 3 0.333333 0.666667 0.666667
node 217 coords 3 0.333333 0.666667 1
node 218 coords 3 0.333333 0.666667 1.33333
node 219 coords 3 0.333333 0.666667 1.66667
node 220 coords 3 0.333333 0.666667 2
node 221 coords 3 0.333333 0.666667 2.33333
# ... 35 like lines cut
ltrspace 1 nodes 4 215 229 243 244 crosssect 1 mat 1
ltrspace 2 nodes 4 131 85 201 202 crosssect 1 mat 1
ltrspace 3 nodes 4 34 202 132 133 crosssect 1 mat 1
ltrspace 4 nodes 4 133 87 203 204 crosssect 1 mat 1
ltrspace 5 nodes 4 36 204 134 135 crosssect 1 mat 1
ltrspace 6 nodes 4 135 89 205 206 crosssect 1 mat 1
ltrspace 7 nodes 4 38 206 136 137 crosssect 1 mat 1
ltrspace 8 nodes 4 137 91 207 208 crosssect 1 mat 1
ltrspace 9 nodes 4 40 208 138 139 crosssect 1 mat 1
ltrspace 10 nodes 4 139 93 209 210 crosssect 1 mat 1
ltrspace 11 nodes 4 42 210 140 141 crosssect 1 mat 1
ltrspace 12 nodes 4 141 95 211 212 crosssect 1 mat 1
ltrspace 13 nodes 4 44 212 142 143 crosssect 1 mat 1
ltrspace 14 nodes 4 143 97 213 214 crosssect 1 mat 1
ltrspace 15 nodes 4 46 214 144 51 crosssect 1 mat 1
ltrspace 16 nodes 4 16 83 84 215 crosssect 1 mat 1
ltrspace 17 nodes 4 85 229 201 202 crosssect 1 mat 1
ltrspace 18 nodes 4 202 100 230 231 crosssect 1 mat 1
ltrspace 19 nodes 4 87 231 203 204 crosssect 1 mat 1
ltrspace 20 nodes 4 204 102 232 233 crosssect 1 mat 1
# ... 655 like lines cut
SimpleCS 1 thick 1 width 1
IsoLE 1 tAlpha 0.000012 d 100e5 E 100e4 n 0.2
BoundaryCondition 1 loadTimeFunction 1 prescribedvalue 0
NodalLoad 2 loadTimeFunction 1 Components 3 0 0 0
NodalLoad 3 loadTimeFunction 1 Components 3 0 0 0
NodalLoad 4 loadTimeFunction 1 Components 3 0 0 0
NodalLoad 5 loadTimeFunction 1 Components 3 0 0 0
NodalLoad 6 loadTimeFunction 1 Components 3 0 0 0
NodalLoad 7 loadTimeFunction 1 Components 3 0 0 0
NodalLoad 8 loadTimeFunction 1 Components 3 0 0 0
NodalLoad 9 loadTimeFunction 1 Components 3 0 0 0
NodalLoad 10 loadTimeFunction 1 Components 3 0 0 0
NodalLoad 11 loadTimeFunction 1 Components 3 0 0 0
NodalLoad 12 loadTimeFunction 1 Components 3 0 0 0
NodalLoad 13 loadTimeFunction 1 Components 3 0 0 0
NodalLoad 14 loadTimeFunction 1 Components 3 0 0 0
NodalLoad 15 loadTimeFunction 1 Components 3 0 0 0
NodalLoad 16 loadTimeFunction 1 Components 3 0 0 0
NodalLoad 17 loadTimeFunction 1 Components 3 0 0 0
NodalLoad 18 loadTimeFunction 1 Components 3 0 0 0
NodalLoad 19 loadTimeFunction 1 Components 3 0 0 0
NodalLoad 20 loadTimeFunction 1 Components 3 0 0 0
NodalLoad 21 loadTimeFunction 1 Components 3 0 0 0
# ... 180 like lines cut
ConstantFunction 1 f(t) 1.0
